/*--------------------------------*- C++ -*----------------------------------*\
  =========                 |
  \\      /  F ield         | OpenFOAM: The Open Source CFD Toolbox
   \\    /   O peration     | Website:  https://openfoam.org
    \\  /    A nd           | Version:  11
     \\/     M anipulation  |
\*---------------------------------------------------------------------------*/
FoamFile
{
    format      ascii;
    class       dictionary;
    location    "system";
    object      fvSchemes;
}
// * * * * * * * * * * * * * * * * * * * * * * * * * * * * * * * * * * * * * //

ddtSchemes
{
    default         Euler;
}

gradSchemes
{
    default         leastSquares;
}

divSchemes
{
    default         none;

    // linearUpwindV is 2nd-order upwind-biased for vectors and is the
    // standard choice for unsteady cylinder wakes -- it has visibly less
    // numerical diffusion than the central "Gauss linear" scheme, which
    // is what was previously pushing the effective Re down and giving
    // us Cd = 1.18 / St = 0.12 at the coarse-mesh / linear-scheme
    // baseline. The "grad(U)" suffix tells the scheme which gradient
    // to use when evaluating upstream values.
    div(phi,U)      Gauss linearUpwindV grad(U);
    div((nuEff*dev2(T(grad(U)))))  Gauss linear;
}

laplacianSchemes
{
    default         Gauss linear corrected;
}

interpolationSchemes
{
    default         linear;
}

snGradSchemes
{
    default         corrected;
}


// ************************************************************************* //
